Version 4
SHEET 1 3216 2420
WIRE 1120 -128 800 -128
WIRE 1120 112 1120 -128
WIRE 800 128 800 -128
WIRE 960 176 848 176
WIRE 752 192 528 192
WIRE 960 256 960 176
WIRE 528 272 528 192
WIRE 528 432 528 352
WIRE 768 432 768 240
WIRE 768 432 528 432
WIRE 960 432 960 336
WIRE 960 432 768 432
WIRE 1120 432 1120 192
WIRE 1120 432 960 432
WIRE 768 464 768 432
FLAG 768 464 0
SYMBOL tetrode 800 176 R0
WINDOW 0 -49 -82 VRight 2
WINDOW 3 -24 -112 VRight 2
SYMATTR InstName U1
SYMATTR Value EL34
SYMBOL voltage 1120 96 R0
WINDOW 3 24 44 Left 2
WINDOW 123 0 0 Left 2
WINDOW 39 0 0 Left 2
SYMATTR InstName VP
SYMATTR Value 400
SYMBOL voltage 528 256 R0
WINDOW 0 24 96 Left 2
WINDOW 3 24 16 Left 2
WINDOW 123 0 0 Left 2
WINDOW 39 0 0 Left 2
SYMATTR InstName VG
SYMATTR Value -38
SYMBOL voltage 960 240 R0
WINDOW 123 0 0 Left 2
WINDOW 39 0 0 Left 2
SYMATTR InstName VSG
SYMATTR Value 300
TEXT 584 560 Left 2 !*\n* Generic pentode model: EL34\n* Copyright 2003--2006 by Ayumi Nakabayashi, All rights reserved.\n* Version 3.01, Generated on Wed Mar 22 17:23:36 2006\n.SUBCKT EL34 A G2 G1 K\nBGG   GG   0 V=V(G1,K)+0.29360503\nBEP   EP   0 V=URAMP(V(A,K))+1e-10\nBEG   EG   0 V=URAMP(V(G1,K))+1e-10\nBEG2  EG2  0 V=URAMP(V(G2,K))+1e-10\nBM1   M1   0 V=(0.040003405*(URAMP(V(EG2)-1e-10)+1e-10))**-0.73308055\nBM2   M2   0 V=(0.67171782*(URAMP(V(GG)+V(EG2)/8.2063559)+1e-10))**2.2330806\nBP    P    0 V=0.0033402929*(URAMP(V(GG)+V(EG2)/12.216969)+1e-10)**1.5\nBIK   IK   0 V=U(V(GG))*V(P)+(1-U(V(GG)))*0.0019762451*V(M1)*V(M2)\nBIG   IG   0 V=0.0016701465*V(EG)**1.5*(V(EG)/(V(EP)+V(EG))*1.2+0.4)\nBIK2  IK2  0 V=V(IK,IG)*(1-0.4*(EXP(-V(EP)/V(EG2)*15)-EXP(-15)))\nBIG2T IG2T 0 V=V(IK2)*(0.87617414*(1-V(EP)/(V(EP)+10))**1.5+0.12382586)\nBIK3  IK3  0 V=V(IK2)*(V(EP)+1250)/(V(EG2)+1250)\nBIK4  IK4  0 V=V(IK3)-URAMP(V(IK3)-(0.0020885491*(V(EP)+URAMP(V(EG2,EP)))**1.5))\nBIP   IP   0 V=URAMP(V(IK4,IG2T)-URAMP(V(IK4,IG2T)-(0.0020885491*V(EP)**1.5)))\nBIAK  A    K I=V(IP)+1e-10*V(A,K)\nBIG2  G2   K I=URAMP(V(IK4,IP))\nBIGK  G1   K I=V(IG)\n* CAPS\nCGA   G1  A  1.1p\nCGK   G1  K  9.1p\nC12   G1  G2 6.1p\nCAK   A   K  8.4p\n.ENDS
TEXT 464 1336 Left 2 !;tran 10m
TEXT 1272 168 Left 2 !.dc VP 0 700 
TEXT 416 456 Left 2 !.step VG -25 0 5
TEXT -472 584 Left 2 !*-----------------------------------------------------------------------\n* Filename:                     6ca7.inc  V3 23/01/2004\n* Simulator:                    PSpice\n* Device type:                  Power pentode\n* Device model:                 6CA7/EL34\n*\n* Author:                       Duncan Munro\n* Date:                                         2/5/97\n* Copyright:                    (C)1997-2004 Duncan Amplification\n*\n*\n* V2 [12/10/97]: Screen current limited to prevent screen current\n*                                draw at Vs = 0.\n*\n* V4 [23/01/04]: LIMIT{x,y,z} statements changed to LIMIT(x,y,z)\n* \n* The following parameters are not modelled:\n*\n*   (1) Heater\n*   (2) Grid current is an approximation\n*\n* Please note that this model is provided "as is" and\n* no warranty is provided in respect of its suitability\n* for any application.\n*\n* This model is provided for educational and non-profit use.\n*\n* Queries via the forum at http://www.duncanamps.com/\n*\n* Pins   A  Anode\n*        S  Screen\n*        G  Grid\n*        K  Cathode\n*\n*-----------------------------------------------------------------------\n \n.SUBCKT 6CA7 A S G K\n*\n* Calculate contribution to cathode current\n*\nEat             at              0               VALUE={0.636*ATAN(V(A,K)/23)}\nEgs             gs              0               VALUE={LIMIT(V(S,K)/9.3+V(G,K)*0.95,0,1E6)}\nEgs2            gs2             0               VALUE={PWRS(V(gs),1.5)}\nEcath           cc              0               VALUE={V(gs2)*V(at)}\n*\n* Calculate anode current\n*\nGa              A               K               VALUE={1.86E-3*V(cc)}\n*\n* Calculate screen current\n*\nEscrn           sc              0               VALUE={V(gs2)*(1.1-V(at))}\nGs              S               K               VALUE={1.518E-3*V(sc)*LIMIT(V(S,K),0,10)/10}\n*\n* Grid current (approximation - does not model low va/vs)\n*\nGg              G               K               VALUE={PWR(LIMIT(V(G,K)+1,0,1E6),1.5)*50E-6}\n*\n* Capacitances\n*\nCg1             G               K               15.4p\nCak             A               K               8.4p\nCg1a            G               A               1.1p\n \n.ENDS \n
