Version 4
SHEET 1 2556 680
WIRE 672 -624 208 -624
WIRE 2496 -624 672 -624
WIRE 2512 -624 2496 -624
WIRE 2496 -592 2496 -624
WIRE 2496 -448 2496 -512
WIRE 496 -368 384 -368
WIRE 592 -368 496 -368
WIRE 704 -368 592 -368
WIRE 848 -368 784 -368
WIRE 384 -320 384 -368
WIRE 496 -320 496 -368
WIRE 592 -288 592 -368
WIRE 704 -288 592 -288
WIRE 848 -288 848 -368
WIRE 848 -288 768 -288
WIRE 384 -208 384 -240
WIRE 496 -208 496 -240
WIRE 656 -128 608 -128
WIRE 384 -80 384 -144
WIRE 496 -80 496 -144
WIRE 640 -64 608 -64
WIRE 640 -16 640 -64
WIRE 656 -16 656 -128
WIRE 672 -16 672 -624
WIRE 592 0 592 -288
WIRE 624 0 592 0
WIRE 848 16 848 -288
WIRE 848 16 688 16
WIRE 896 16 848 16
WIRE 1056 16 976 16
WIRE 1232 16 1120 16
WIRE 1328 16 1232 16
WIRE 1408 16 1328 16
WIRE 1536 16 1488 16
WIRE 1728 16 1616 16
WIRE -80 32 -400 32
WIRE 16 32 -80 32
WIRE 336 32 80 32
WIRE 384 32 336 32
WIRE 512 32 464 32
WIRE 624 32 512 32
WIRE 1728 48 1728 16
WIRE 512 64 512 32
WIRE -400 96 -400 32
WIRE 656 112 656 48
WIRE 1232 112 1232 16
WIRE 1328 112 1328 16
WIRE 208 144 208 -624
WIRE -80 160 -80 32
WIRE 336 160 336 32
WIRE 1728 176 1728 112
WIRE 512 208 512 128
WIRE -400 224 -400 176
WIRE 208 272 208 224
WIRE 336 272 336 240
WIRE 336 272 208 272
WIRE 1232 288 1232 176
WIRE 1328 288 1328 176
WIRE 208 320 208 272
WIRE 336 320 336 272
WIRE -80 400 -80 240
WIRE 208 448 208 400
WIRE 336 448 336 384
FLAG -400 224 0
FLAG 336 448 0
FLAG 512 208 0
FLAG -80 400 0
FLAG 208 448 0
FLAG 384 -80 0
FLAG 496 -80 0
FLAG 656 112 0
FLAG -32 400 0
FLAG 2496 -448 0
FLAG 1728 176 0
FLAG 1232 288 0
FLAG 1328 288 0
SYMBOL cap 496 64 R0
SYMATTR InstName C1
SYMATTR Value 1n
SYMBOL cap 480 -208 R0
SYMATTR InstName C2
SYMATTR Value 2.2u
SYMBOL cap 368 -208 R0
SYMATTR InstName C3
SYMATTR Value 4.7u
SYMBOL res 480 -336 R0
SYMATTR InstName R1
SYMATTR Value 47
SYMBOL res 368 -336 R0
SYMATTR InstName R2
SYMATTR Value 560
SYMBOL res 800 -384 R90
WINDOW 0 0 56 VBottom 2
WINDOW 3 32 56 VTop 2
SYMATTR InstName R3
SYMATTR Value {DIST}
SYMBOL res 480 16 R90
WINDOW 0 0 56 VBottom 2
WINDOW 3 32 56 VTop 2
SYMATTR InstName R4
SYMATTR Value 1k
SYMBOL res 352 256 R180
WINDOW 0 36 76 Left 2
WINDOW 3 36 40 Left 2
SYMATTR InstName R5
SYMATTR Value 1meg
SYMBOL res 192 304 R0
SYMATTR InstName R6
SYMATTR Value 100k
SYMBOL res 192 128 R0
SYMATTR InstName R7
SYMATTR Value 100k
SYMBOL cap 320 320 R0
SYMATTR InstName C4
SYMATTR Value 1u
SYMBOL cap 768 -304 R90
WINDOW 0 0 32 VBottom 2
WINDOW 3 32 32 VTop 2
SYMATTR InstName C5
SYMATTR Value 100p
SYMBOL voltage -400 80 R0
WINDOW 123 24 124 Left 2
WINDOW 39 0 0 Left 2
SYMATTR Value2 AC 1m 0
SYMATTR InstName V1
SYMATTR Value SINE(0 10m 200)
SYMBOL res -96 144 R0
SYMATTR InstName R8
SYMATTR Value 2.2meg
SYMBOL cap 80 16 R90
WINDOW 0 0 32 VBottom 2
WINDOW 3 32 32 VTop 2
SYMATTR InstName C6
SYMATTR Value 22n
SYMBOL voltage 2496 -608 R0
WINDOW 123 0 0 Left 2
WINDOW 39 0 0 Left 2
SYMATTR InstName V2
SYMATTR Value 9
SYMBOL res 992 0 R90
WINDOW 0 0 56 VBottom 2
WINDOW 3 32 56 VTop 2
SYMATTR InstName R9
SYMATTR Value 1k
SYMBOL res 1504 0 R90
WINDOW 0 0 56 VBottom 2
WINDOW 3 32 56 VTop 2
SYMATTR InstName R10
SYMATTR Value {FIL}
SYMBOL res 1632 0 R90
WINDOW 0 0 56 VBottom 2
WINDOW 3 32 56 VTop 2
SYMATTR InstName R11
SYMATTR Value 1.6k
SYMBOL cap 1712 48 R0
SYMATTR InstName C7
SYMATTR Value 3.3n
SYMBOL cap 592 -128 R0
SYMATTR InstName C8
SYMATTR Value 30p
SYMBOL cap 1120 0 R90
WINDOW 0 0 32 VBottom 2
WINDOW 3 32 32 VTop 2
SYMATTR InstName C9
SYMATTR Value 4.7u
SYMBOL diode 1216 112 R0
SYMATTR InstName D1
SYMATTR Value 1N914
SYMBOL diode 1312 176 M180
WINDOW 0 24 64 Left 2
WINDOW 3 24 0 Left 2
SYMATTR InstName D2
SYMATTR Value 1N914
SYMBOL Opamps\\LT1008 656 -48 R0
SYMATTR InstName U1
TEXT -664 136 Left 2 !.tran 50m
TEXT -672 160 Left 2 !;ac oct 100 20 20k
TEXT 904 -296 Left 2 ;.step param DIST 1k 100k
TEXT 1408 -96 Left 2 !.param FIL=20k
TEXT 904 -272 Left 2 !.param DIST=50k
TEXT 1408 -120 Left 2 ;.step param FIL 1k 100k
TEXT -1320 -928 Left 2 !* Version 2.0 Copyright c Linear Technology Corp. 10/19/04. All rights reserved.\n*\n* NODES 1 AND 8 = COMPENSATION PINS\n*\n.SUBCKT LM308A 3 2 7 4 6 1 8 \n* USE C=30 PF IN MAIN CIRCUIT (CA TO CB).\n* INPUT\nRC1 7 80 8.842E+03\nRC2 7 90 8.842E+03\nQ1 80 2 10 QM1 \nQ2 90 3 11 QM2 \nDDM1 2 3 DM2 \nDDM2 3 2 DM2 \nC1 80 90 5.460E-12\nRE1 10 12 2.245E+02\nRE2 11 12 2.245E+02\nIEE 12 4 6.003E-06\nRE 12 0 3.332E+07\nCE 12 0 1.579E-12\n* INTERMEDIATE \nGCM 0 8 12 0 3.576E-10\nGA 8 0 80 90 1.131E-04\nR2 8 0 1.000E+05\n* EXTERNAL COMP CAP USED FOR C2 (SEE NOTE ABOVE).\nGB 1 0 8 0 3.146E+01\n* OUTPUT \nRO1 1 6 1.111E+02\nRO2 1 0 8.889E+02\nRC 17 0 3.533E-04\nGC 0 17 6 0 2.830E+03\nD1 1 17 DM1 \nD2 17 1 DM1 \nD3 6 13 DM2 \nD4 14 6 DM2 \nVC 7 13 1.766E+00\nVE 14 4 1.766E+00\nIP 7 4 2.940E-04\nDSUB 4 7 DM2 \n* MODELS \n.MODEL QM1 NPN (IS=8.000E-16 BF=1.875E+03)\n.MODEL QM2 NPN (IS=8.093E-16 BF=2.143E+03)\n.MODEL DM1 D (IS=1.192E-10)\n.MODEL DM2 D (IS=8.000E-16)\n.ENDS LM308A
