*
* Generic pentode model: 50HB26
* Copyright 2003--2006 by Ayumi Nakabayashi, All rights reserved.
* Version 3.01, Generated on Wed Mar 22 17:21:51 2006
.SUBCKT 50HB26 A G2 G1 K
BGG   GG   0 V=V(G1,K)+0.99999978
BEP   EP   0 V=URAMP(V(A,K))+1e-10
BEG   EG   0 V=URAMP(V(G1,K))+1e-10
BEG2  EG2  0 V=URAMP(V(G2,K))+1e-10
BM1   M1   0 V=(0.092479665*(URAMP(V(EG2)-1e-10)+1e-10))^-0.92218999
BM2   M2   0 V=(0.61927429*(URAMP(V(GG)+V(EG2)/4.1168586)+1e-10))^2.42219
BP    P    0 V=0.0043389918*(URAMP(V(GG)+V(EG2)/6.6478758)+1e-10)^1.5
BIK   IK   0 V=U(V(GG))*V(P)+(1-U(V(GG)))*0.0027704924*V(M1)*V(M2)
BIG   IG   0 V=0.0021694959*V(EG)^1.5*(V(EG)/(V(EP)+V(EG))*1.2+0.4)
BIK2  IK2  0 V=V(IK,IG)*(1-0.4*(EXP(-V(EP)/V(EG2)*15)-EXP(-15)))
BIG2T IG2T 0 V=V(IK2)*(0.953564854*(1-V(EP)/(V(EP)+10))^1.5+0.046435146)
BIK3  IK3  0 V=V(IK2)*(V(EP)+1715)/(V(EG2)+1715)
BIK4  IK4  0 V=V(IK3)-URAMP(V(IK3)-(0.0031844715*(V(EP)+URAMP(V(EG2,EP)))^1.5))
BIP   IP   0 V=URAMP(V(IK4,IG2T)-URAMP(V(IK4,IG2T)-(0.0031844715*V(EP)^1.5)))
BIAK  A    K I=V(IP)+1e-10*V(A,K)
BIG2  G2   K I=URAMP(V(IK4,IP))
BIGK  G1   K I=V(IG)
* CAPS
CGA   G1  A  1.1p
CGK   G1  K  9.8p
C12   G1  G2 6.5p
CAK   A   K  6.7p
.ENDS
