*
* Generic pentode model: 6AN8P
* Copyright 2003--2006 by Ayumi Nakabayashi, All rights reserved.
* Version 3.01, Generated on Wed Mar 22 17:19:34 2006
.SUBCKT 6AN8P A G2 G1 K
BGG   GG   0 V=V(G1,K)+-1
BEP   EP   0 V=URAMP(V(A,K))+1e-10
BEG   EG   0 V=URAMP(V(G1,K))+1e-10
BEG2  EG2  0 V=URAMP(V(G2,K))+1e-10
BM1   M1   0 V=(0.024591513*(URAMP(V(EG2)-1e-10)+1e-10))^-1.3002423
BM2   M2   0 V=(0.53566794*(URAMP(V(GG)+V(EG2)/18.881801)+1e-10))^2.8002423
BP    P    0 V=0.0063199577*(URAMP(V(GG)+V(EG2)/35.249078)+1e-10)^1.5
BIK   IK   0 V=U(V(GG))*V(P)+(1-U(V(GG)))*0.0052482203*V(M1)*V(M2)
BIG   IG   0 V=0.0031599788*V(EG)^1.5*(V(EG)/(V(EP)+V(EG))*1.2+0.4)
BIK2  IK2  0 V=V(IK,IG)*(1-0.4*(EXP(-V(EP)/V(EG2)*15)-EXP(-15)))
BIG2T IG2T 0 V=V(IK2)*(0.77512042*(1-V(EP)/(V(EP)+10))^1.5+0.22487958)
BIK3  IK3  0 V=V(IK2)*(V(EP)+7075)/(V(EG2)+7075)
BIK4  IK4  0 V=V(IK3)-URAMP(V(IK3)-(0.0034308188*(V(EP)+URAMP(V(EG2,EP)))^1.5))
BIP   IP   0 V=URAMP(V(IK4,IG2T)-URAMP(V(IK4,IG2T)-(0.0034308188*V(EP)^1.5)))
BIAK  A    K I=V(IP)+1e-10*V(A,K)
BIG2  G2   K I=URAMP(V(IK4,IP))
BIGK  G1   K I=V(IG)
* CAPS
CGA   G1  A  0.04p
CGK   G1  K  4.2p
C12   G1  G2 2.8p
CAK   A   K  2.4p
.ENDS
