*
* Generic pentode model: 6CD6
* Copyright 2003--2006 by Ayumi Nakabayashi, All rights reserved.
* Version 3.01, Generated on Wed Mar 22 17:20:01 2006
.SUBCKT 6CD6 A G2 G1 K
BGG   GG   0 V=V(G1,K)+-0.11853336
BEP   EP   0 V=URAMP(V(A,K))+1e-10
BEG   EG   0 V=URAMP(V(G1,K))+1e-10
BEG2  EG2  0 V=URAMP(V(G2,K))+1e-10
BM1   M1   0 V=(0.13222789*(URAMP(V(EG2)-1e-10)+1e-10))^-1.0472626
BM2   M2   0 V=(0.58886744*(URAMP(V(GG)+V(EG2)/3.1092727)+1e-10))^2.5472626
BP    P    0 V=0.0032013575*(URAMP(V(GG)+V(EG2)/5.2800894)+1e-10)^1.5
BIK   IK   0 V=U(V(GG))*V(P)+(1-U(V(GG)))*0.0021974746*V(M1)*V(M2)
BIG   IG   0 V=0.0016006788*V(EG)^1.5*(V(EG)/(V(EP)+V(EG))*1.2+0.4)
BIK2  IK2  0 V=V(IK,IG)*(1-0.4*(EXP(-V(EP)/V(EG2)*15)-EXP(-15)))
BIG2T IG2T 0 V=V(IK2)*(0.943534714*(1-V(EP)/(V(EP)+10))^1.5+0.056465286)
BIK3  IK3  0 V=V(IK2)*(V(EP)+2412.5)/(V(EG2)+2412.5)
BIK4  IK4  0 V=V(IK3)-URAMP(V(IK3)-(0.0025519299*(V(EP)+URAMP(V(EG2,EP)))^1.5))
BIP   IP   0 V=URAMP(V(IK4,IG2T)-URAMP(V(IK4,IG2T)-(0.0025519299*V(EP)^1.5)))
BIAK  A    K I=V(IP)+1e-10*V(A,K)
BIG2  G2   K I=URAMP(V(IK4,IP))
BIGK  G1   K I=V(IG)
* CAPS
CGA   G1  A  1.1p
CGK   G1  K  12.6p
C12   G1  G2 8.4p
CAK   A   K  7.5p
.ENDS
