*
* Generic pentode model: 6CL6
* Copyright 2003--2006 by Ayumi Nakabayashi, All rights reserved.
* Version 3.01, Generated on Wed Mar 22 17:20:05 2006
.SUBCKT 6CL6 A G2 G1 K
BGG   GG   0 V=V(G1,K)+0.23313833
BEP   EP   0 V=URAMP(V(A,K))+1e-10
BEG   EG   0 V=URAMP(V(G1,K))+1e-10
BEG2  EG2  0 V=URAMP(V(G2,K))+1e-10
BM1   M1   0 V=(0.023688975*(URAMP(V(EG2)-1e-10)+1e-10))^-0.93652529
BM2   M2   0 V=(0.6156308*(URAMP(V(GG)+V(EG2)/16.225658)+1e-10))^2.4365253
BP    P    0 V=0.0060982027*(URAMP(V(GG)+V(EG2)/26.356151)+1e-10)^1.5
BIK   IK   0 V=U(V(GG))*V(P)+(1-U(V(GG)))*0.0039229723*V(M1)*V(M2)
BIG   IG   0 V=0.0030491014*V(EG)^1.5*(V(EG)/(V(EP)+V(EG))*1.2+0.4)
BIK2  IK2  0 V=V(IK,IG)*(1-0.4*(EXP(-V(EP)/V(EG2)*15)-EXP(-15)))
BIG2T IG2T 0 V=V(IK2)*(0.81697318*(1-V(EP)/(V(EP)+10))^1.5+0.18302682)
BIK3  IK3  0 V=V(IK2)*(V(EP)+3450)/(V(EG2)+3450)
BIK4  IK4  0 V=V(IK3)-URAMP(V(IK3)-(0.0033994382*(V(EP)+URAMP(V(EG2,EP)))^1.5))
BIP   IP   0 V=URAMP(V(IK4,IG2T)-URAMP(V(IK4,IG2T)-(0.0033994382*V(EP)^1.5)))
BIAK  A    K I=V(IP)+1e-10*V(A,K)
BIG2  G2   K I=URAMP(V(IK4,IP))
BIGK  G1   K I=V(IG)
* CAPS
CGA   G1  A  0.12p
CGK   G1  K  6.5p
C12   G1  G2 4.4p
CAK   A   K  5.4p
.ENDS
