*
* Generic pentode model: 6KD6
* Copyright 2003--2006 by Ayumi Nakabayashi, All rights reserved.
* Version 3.01, Generated on Wed Mar 22 17:20:56 2006
.SUBCKT 6KD6 A G2 G1 K
BGG   GG   0 V=V(G1,K)+1
BEP   EP   0 V=URAMP(V(A,K))+1e-10
BEG   EG   0 V=URAMP(V(G1,K))+1e-10
BEG2  EG2  0 V=URAMP(V(G2,K))+1e-10
BM1   M1   0 V=(0.14076535*(URAMP(V(EG2)-1e-10)+1e-10))^-1.0380568
BM2   M2   0 V=(0.59100333*(URAMP(V(GG)+V(EG2)/2.905521)+1e-10))^2.5380568
BP    P    0 V=0.0075955054*(URAMP(V(GG)+V(EG2)/4.9162515)+1e-10)^1.5
BIK   IK   0 V=U(V(GG))*V(P)+(1-U(V(GG)))*0.0051832527*V(M1)*V(M2)
BIG   IG   0 V=0.0037977527*V(EG)^1.5*(V(EG)/(V(EP)+V(EG))*1.2+0.4)
BIK2  IK2  0 V=V(IK,IG)*(1-0.4*(EXP(-V(EP)/V(EG2)*15)-EXP(-15)))
BIG2T IG2T 0 V=V(IK2)*(0.9959539371*(1-V(EP)/(V(EP)+10))^1.5+0.0040460629)
BIK3  IK3  0 V=V(IK2)*(V(EP)+1090)/(V(EG2)+1090)
BIK4  IK4  0 V=V(IK3)-URAMP(V(IK3)-(0.0062293504*(V(EP)+URAMP(V(EG2,EP)))^1.5))
BIP   IP   0 V=URAMP(V(IK4,IG2T)-URAMP(V(IK4,IG2T)-(0.0062293504*V(EP)^1.5)))
BIAK  A    K I=V(IP)+1e-10*V(A,K)
BIG2  G2   K I=URAMP(V(IK4,IP))
BIGK  G1   K I=V(IG)
* CAPS
CGA   G1  A  0.8p
CGK   G1  K  23.5p
C12   G1  G2 15.7p
CAK   A   K  15.2p
.ENDS
