*
* Generic pentode model: 6SJ7
* Copyright 2003--2006 by Ayumi Nakabayashi, All rights reserved.
* Version 3.01, Generated on Wed Mar 22 17:21:20 2006
.SUBCKT 6SJ7 A G2 G1 K
BGG   GG   0 V=V(G1,K)+0.40161932
BEP   EP   0 V=URAMP(V(A,K))+1e-10
BEG   EG   0 V=URAMP(V(G1,K))+1e-10
BEG2  EG2  0 V=URAMP(V(G2,K))+1e-10
BM1   M1   0 V=(0.02462593*(URAMP(V(EG2)-1e-10)+1e-10))^-0.84287662
BM2   M2   0 V=(0.64023858*(URAMP(V(GG)+V(EG2)/14.609049)+1e-10))^2.3428766
BP    P    0 V=0.0011655656*(URAMP(V(GG)+V(EG2)/22.818133)+1e-10)^1.5
BIK   IK   0 V=U(V(GG))*V(P)+(1-U(V(GG)))*0.00071703729*V(M1)*V(M2)
BIG   IG   0 V=0.00068041382*V(EG)^1.5*(V(EG)/(V(EP)+V(EG))*1.2+0.4)
BIK2  IK2  0 V=V(IK,IG)*(1-0.4*(EXP(-V(EP)/V(EG2)*15)-EXP(-15)))
BIG2T IG2T 0 V=V(IK2)*(0.78466568*(1-V(EP)/(V(EP)+10))^1.5+0.21533432)
BIK3  IK3  0 V=V(IK2)*(V(EP)+12950)/(V(EG2)+12950)
BIK4  IK4  0 V=V(IK3)-URAMP(V(IK3)-(0.00044226898*(V(EP)+URAMP(V(EG2,EP)))^1.5))
BIP   IP   0 V=URAMP(V(IK4,IG2T)-URAMP(V(IK4,IG2T)-(0.00044226898*V(EP)^1.5)))
BIAK  A    K I=V(IP)+1e-10*V(A,K)
BIG2  G2   K I=URAMP(V(IK4,IP))
BIGK  G1   K I=V(IG)
* CAPS
CGA   G1  A  0.005p
CGK   G1  K  3.6p
C12   G1  G2 2.4p
CAK   A   K  7p
.ENDS
