*
* Generic pentode model: EF39
* Copyright 2003--2006 by Ayumi Nakabayashi, All rights reserved.
* Version 3.01, Generated on Wed Mar 22 17:27:23 2006
.SUBCKT EF39 A G2 G1 K
BGG   GG   0 V=V(G1,K)+0.00099090005
BEP   EP   0 V=URAMP(V(A,K))+1e-10
BEG   EG   0 V=URAMP(V(G1,K))+1e-10
BEG2  EG2  0 V=URAMP(V(G2,K))+1e-10
BM1   M1   0 V=(0.44634244*(URAMP(V(EG2)-1e-10)+1e-10))^-13.640171
BM2   M2   0 V=(0.099074175*(URAMP(V(GG)+V(EG2)/2.0184633)+1e-10))^15.140171
BP    P    0 V=0.0016067851*(URAMP(V(GG)+V(EG2)/20.373254)+1e-10)^1.5
BIK   IK   0 V=U(V(GG))*V(P)+(1-U(V(GG)))*19194638000*V(M1)*V(M2)
BIG   IG   0 V=0.00080339255*V(EG)^1.5*(V(EG)/(V(EP)+V(EG))*1.2+0.4)
BIK2  IK2  0 V=V(IK,IG)*(1-0.4*(EXP(-V(EP)/V(EG2)*15)-EXP(-15)))
BIG2T IG2T 0 V=V(IK2)*(0.80079764*(1-V(EP)/(V(EP)+10))^1.5+0.19920236)
BIK3  IK3  0 V=V(IK2)*(V(EP)+14531.643)/(V(EG2)+14531.643)
BIK4  IK4  0 V=V(IK3)-URAMP(V(IK3)-(0.00092313363*(V(EP)+URAMP(V(EG2,EP)))^1.5))
BIP   IP   0 V=URAMP(V(IK4,IG2T)-URAMP(V(IK4,IG2T)-(0.00092313363*V(EP)^1.5)))
BIAK  A    K I=V(IP)+1e-10*V(A,K)
BIG2  G2   K I=URAMP(V(IK4,IP))
BIGK  G1   K I=V(IG)
* CAPS
CGA   G1  A  0.8p
CGK   G1  K  23.5p
C12   G1  G2 15.7p
CAK   A   K  15.2p
.ENDS
