Version 4
SHEET 1 1212 840
WIRE 512 240 512 272
WIRE 512 272 448 272
WIRE 512 272 512 304
WIRE 304 208 304 272
WIRE 304 272 336 272
WIRE 304 272 304 336
WIRE 512 160 352 160
WIRE 512 384 352 384
WIRE 704 224 704 208
WIRE 704 208 656 208
WIRE 592 208 592 224
WIRE 704 304 704 320
WIRE 704 320 640 320
WIRE 592 320 592 304
WIRE 640 320 640 336
WIRE 640 320 592 320
WIRE 224 128 240 128
WIRE 224 416 240 416
WIRE 880 624 464 624
WIRE 880 432 880 624
WIRE 880 352 880 -192
WIRE 880 -192 448 -192
WIRE 448 272 448 -192
WIRE 448 -192 416 -192
WIRE 288 -160 288 -192
WIRE 288 -192 336 -192
WIRE 288 -96 288 -64
WIRE 288 -192 288 -224
WIRE 1072 432 1072 624
WIRE 1072 624 880 624
WIRE 1072 352 1072 304
WIRE 656 208 656 176
WIRE 656 208 592 208
WIRE 656 176 736 176
WIRE 288 112 288 64
WIRE 288 64 80 64
WIRE 80 64 80 128
WIRE 80 208 80 272
WIRE 80 416 80 480
WIRE 80 480 288 480
WIRE 288 480 288 432
WIRE 80 272 128 272
WIRE 80 272 80 336
WIRE 208 -192 288 -192
WIRE 80 -160 80 -192
WIRE 80 -192 128 -192
WIRE 80 -96 80 -64
WIRE -128 144 -128 64
WIRE -128 -144 -128 -192
WIRE -128 -192 80 -192
WIRE -160 240 -160 272
WIRE -160 368 -160 400
WIRE -160 592 -160 624
WIRE -160 624 -416 624
WIRE 80 64 0 64
WIRE -64 64 -128 64
WIRE -128 64 -128 -64
WIRE 80 480 0 480
WIRE -64 480 -160 480
WIRE -160 480 -160 512
WIRE -272 288 -272 192
WIRE -272 192 -176 192
WIRE -272 368 -272 432
WIRE -272 432 -160 432
WIRE -160 432 -160 480
WIRE 464 624 464 656
WIRE 464 624 -160 624
WIRE -320 -160 -320 -192
WIRE -320 -192 -272 -192
WIRE -320 -96 -320 -64
WIRE -192 -192 -128 -192
WIRE -320 -192 -496 -192
WIRE -496 -192 -496 -64
WIRE -496 16 -496 48
WIRE -416 192 -496 192
WIRE -496 192 -496 224
WIRE -352 192 -272 192
WIRE -528 320 -528 400
WIRE -528 544 -528 624
WIRE -528 624 -656 624
WIRE -544 272 -656 272
WIRE -656 368 -656 272
WIRE -656 272 -672 272
WIRE -656 448 -656 624
WIRE -656 624 -864 624
WIRE -864 480 -864 624
WIRE -864 400 -864 272
WIRE -864 272 -736 272
WIRE -416 480 -416 400
WIRE -416 400 -528 400
WIRE -528 400 -528 464
WIRE -416 544 -416 624
WIRE -416 624 -528 624
WIRE -624 80 -624 48
WIRE -624 144 -624 176
WIRE -624 48 -496 48
WIRE -496 48 -496 192
WIRE -64 288 -64 272
WIRE -64 272 -160 272
WIRE -160 272 -160 288
WIRE -64 352 -64 400
WIRE -64 400 -160 400
WIRE -160 400 -160 432
WIRE 512 416 512 384
WIRE 512 160 512 128
WIRE 512 64 512 32
WIRE 512 480 512 512
FLAG 336 272 HT2
IOPIN 336 272 In
FLAG 640 336 0
FLAG 224 128 0
FLAG 224 416 0
FLAG 288 -64 0
FLAG 288 -224 HT2
IOPIN 288 -224 Out
FLAG 1072 304 BIAS
IOPIN 1072 304 Out
FLAG 736 176 LOAD
IOPIN 736 176 Out
FLAG 128 272 BIAS
IOPIN 128 272 In
FLAG 80 -64 0
FLAG 464 656 0
FLAG -320 -64 0
FLAG -624 176 0
FLAG 512 512 0
FLAG 512 32 0
SYMBOL C:\Program\ Files\LTC\SwCADIII\lib\sym\Misc\tetrode 304 160 R90
WINDOW 0 -49 -82 VRight 0
WINDOW 3 -24 -112 VRight 0
SYMATTR InstName U1
SYMATTR Value 6CA7
SYMBOL C:\Program\ Files\LTC\SwCADIII\lib\sym\Misc\tetrode 304 384 M270
WINDOW 0 -21 -60 VLeft 0
WINDOW 3 -46 -61 VLeft 0
SYMATTR InstName U2
SYMATTR Value 6CA7
SYMBOL C:\Program\ Files\LTC\SwCADIII\lib\sym\ind2 496 144 R0
WINDOW 0 -28 45 Left 0
WINDOW 3 -32 75 Left 0
SYMATTR InstName L1
SYMATTR Value 50H
SYMATTR Type ind
SYMATTR SpiceLine Rser=61 Cpar=240p
SYMBOL C:\Program\ Files\LTC\SwCADIII\lib\sym\ind2 496 288 R0
WINDOW 0 -29 37 Left 0
WINDOW 3 -31 66 Left 0
SYMATTR InstName L2
SYMATTR Value 50H
SYMATTR Type ind
SYMATTR SpiceLine Rser=64 Cpar=240p
SYMBOL C:\Program\ Files\LTC\SwCADIII\lib\sym\ind2 608 320 R180
WINDOW 0 -32 67 Left 0
WINDOW 3 -67 42 Left 0
SYMATTR InstName L3
SYMATTR Value 0.47H
SYMATTR Type ind
SYMATTR SpiceLine Rser=0.7
SYMBOL C:\Program\ Files\LTC\SwCADIII\lib\sym\res 688 208 R0
SYMATTR InstName R1
SYMATTR Value 8
SYMBOL C:\Program\ Files\LTC\SwCADIII\lib\sym\voltage 880 336 R0
WINDOW 0 38 66 Left 0
WINDOW 123 0 0 Left 0
WINDOW 39 24 132 Left 0
SYMATTR InstName VHT
SYMATTR Value 450V
SYMATTR SpiceLine Rser=125
SYMBOL C:\Program\ Files\LTC\SwCADIII\lib\sym\res 320 -176 R270
WINDOW 0 32 56 VTop 0
WINDOW 3 0 56 VBottom 0
SYMATTR InstName R2
SYMATTR Value 220
SYMBOL C:\Program\ Files\LTC\SwCADIII\lib\sym\cap 272 -160 R0
SYMATTR InstName C1
SYMATTR Value 47µ
SYMBOL C:\Program\ Files\LTC\SwCADIII\lib\sym\voltage 1072 448 R180
WINDOW 0 -117 41 Left 0
WINDOW 3 -89 16 Left 0
WINDOW 123 0 0 Left 0
WINDOW 39 -136 -11 Left 0
SYMATTR InstName VBIAS
SYMATTR Value 42V
SYMATTR SpiceLine Rser=1000
SYMBOL C:\Program\ Files\LTC\SwCADIII\lib\sym\res 64 112 R0
SYMATTR InstName R3
SYMATTR Value 100K
SYMBOL C:\Program\ Files\LTC\SwCADIII\lib\sym\res 64 320 R0
SYMATTR InstName R4
SYMATTR Value 100K
SYMBOL C:\Program\ Files\LTC\SwCADIII\lib\sym\Misc\triode -128 192 R0
WINDOW 0 -71 -90 Left 0
WINDOW 3 -129 -56 Left 0
SYMATTR InstName U3
SYMATTR Value NH12AT7
SYMBOL C:\Program\ Files\LTC\SwCADIII\lib\sym\res 112 -176 R270
WINDOW 0 32 56 VTop 0
WINDOW 3 0 56 VBottom 0
SYMATTR InstName R5
SYMATTR Value 10K
SYMBOL C:\Program\ Files\LTC\SwCADIII\lib\sym\cap 64 -160 R0
SYMATTR InstName C2
SYMATTR Value 47µ
SYMBOL C:\Program\ Files\LTC\SwCADIII\lib\sym\res -176 496 R0
SYMATTR InstName R6
SYMATTR Value 47K
SYMBOL C:\Program\ Files\LTC\SwCADIII\lib\sym\res -144 -160 R0
SYMATTR InstName R7
SYMATTR Value 47K
SYMBOL C:\Program\ Files\LTC\SwCADIII\lib\sym\res -176 272 R0
SYMATTR InstName R8
SYMATTR Value 1.2k
SYMBOL C:\Program\ Files\LTC\SwCADIII\lib\sym\cap -64 496 R270
WINDOW 0 32 32 VTop 0
WINDOW 3 0 32 VBottom 0
SYMATTR InstName C3
SYMATTR Value 100n
SYMBOL C:\Program\ Files\LTC\SwCADIII\lib\sym\cap -64 80 R270
WINDOW 0 32 32 VTop 0
WINDOW 3 0 32 VBottom 0
SYMATTR InstName C4
SYMATTR Value 100n
SYMBOL C:\Program\ Files\LTC\SwCADIII\lib\sym\res -288 272 R0
SYMATTR InstName R9
SYMATTR Value 470K
SYMBOL C:\Program\ Files\LTC\SwCADIII\lib\sym\Misc\triode -496 272 R0
WINDOW 0 -71 -90 Left 0
WINDOW 3 -129 -56 Left 0
SYMATTR InstName U4
SYMATTR Value NH12AT7
SYMBOL C:\Program\ Files\LTC\SwCADIII\lib\sym\res -512 -80 R0
SYMATTR InstName R10
SYMATTR Value 100K
SYMBOL C:\Program\ Files\LTC\SwCADIII\lib\sym\res -288 -176 R270
WINDOW 0 32 56 VTop 0
WINDOW 3 0 56 VBottom 0
SYMATTR InstName R11
SYMATTR Value 33k
SYMBOL C:\Program\ Files\LTC\SwCADIII\lib\sym\cap -336 -160 R0
SYMATTR InstName C5
SYMATTR Value 10µ
SYMBOL C:\Program\ Files\LTC\SwCADIII\lib\sym\res -544 448 R0
SYMATTR InstName R12
SYMATTR Value 820
SYMBOL C:\Program\ Files\LTC\SwCADIII\lib\sym\cap -416 208 R270
WINDOW 0 32 32 VTop 0
WINDOW 3 0 32 VBottom 0
SYMATTR InstName C6
SYMATTR Value 22n
SYMBOL C:\Program\ Files\LTC\SwCADIII\lib\sym\res -672 352 R0
SYMATTR InstName R13
SYMATTR Value 470K
SYMBOL C:\Program\ Files\LTC\SwCADIII\lib\sym\cap -736 288 R270
WINDOW 0 32 32 VTop 0
WINDOW 3 0 32 VBottom 0
SYMATTR InstName C7
SYMATTR Value 22n
SYMBOL C:\Program\ Files\LTC\SwCADIII\lib\sym\voltage -864 384 R0
WINDOW 123 24 132 Left 0
WINDOW 39 0 0 Left 0
SYMATTR InstName V1
SYMATTR Value SINE(0 1.3 200)
SYMATTR Value2 AC 1 0
SYMBOL C:\Program\ Files\LTC\SwCADIII\lib\sym\cap -432 480 R0
SYMATTR InstName C8
SYMATTR Value 680n
SYMBOL C:\Program\ Files\LTC\SwCADIII\lib\sym\cap -640 80 R0
SYMATTR InstName C9
SYMATTR Value 1000p
SYMBOL C:\Program\ Files\LTC\SwCADIII\lib\sym\cap -80 288 R0
SYMATTR InstName C10
SYMATTR Value 220n
SYMBOL C:\Program\ Files\LTC\SwCADIII\lib\sym\cap 496 416 R0
SYMATTR InstName C11
SYMATTR Value 1000p
SYMBOL C:\Program\ Files\LTC\SwCADIII\lib\sym\cap 496 64 R0
WINDOW 0 54 2 Left 0
WINDOW 3 46 30 Left 0
SYMATTR InstName C12
SYMATTR Value 1000p
TEXT 560 128 Left 0 !K1 L1 L2 L3 0.9995
TEXT -320 672 Left 0 !.INC 6ca7.inc
TEXT -320 712 Left 0 !.INC dmtriodep.inc
TEXT -320 784 Left 0 !.tran 50mS
TEXT -320 744 Left 0 !;op
TEXT -320 824 Left 0 !;ac dec 50 1 1MEG
LINE Normal 544 384 544 160
LINE Normal 560 387 560 160
